/*--------------------------------*- C++ -*----------------------------------*\
| =========                 |                                                 |
| \\      /  F ield         | OpenFOAM: The Open Source CFD Toolbox           |
|  \\    /   O peration     | Version:  v2012                                 |
|   \\  /    A nd           | Website:  www.openfoam.com                      |
|    \\/     M anipulation  |                                                 |
\*---------------------------------------------------------------------------*/
FoamFile
{
    version     2.0;
    format      ascii;
    class       volScalarField;
    location    "0";
    object      Mv;
}
// * * * * * * * * * * * * * * * * * * * * * * * * * * * * * * * * * * * * * //

dimensions      [-1 1 2 0 0 0 0];

//~ internalField   uniform 0;
//~ internalField   uniform 1.650e-10;
internalField   uniform 1.650e-8;

boundaryField
{
    bottom
    {
        type            zeroGradient;
    }
    top
    {
        type			zeroGradient;
    }
    fixed
    {
        type            empty;
    }
}


// ************************************************************************* //
