/*--------------------------------*- C++ -*----------------------------------*\
| =========                 |                                                 |
| \\      /  F ield         | OpenFOAM: The Open Source CFD Toolbox           |
|  \\    /   O peration     | Version:  2112                                  |
|   \\  /    A nd           | Website:  www.openfoam.com                      |
|    \\/     M anipulation  |                                                 |
\*---------------------------------------------------------------------------*/
FoamFile
{
    version     2.0;
    format      ascii;
    class       volVectorField;
    location    "0";
    object      u;
}
// * * * * * * * * * * * * * * * * * * * * * * * * * * * * * * * * * * * * * //

dimensions      [0 1 0 0 0 0 0];
internalField   uniform (0 0 0);

boundaryField
{
    bottom
    {
        //~ type			TractionBC;
        //~ alpha			uniform 1.0;
        //~ traction		uniform (0 0 1e4);
        //~ value    		uniform (0 0 0);
        type            fixedValue;
        value 			uniform (0 0 0);
        //~ type            noSlip;
    }
    top
    {
        //~ type            fixedValue;
        //~ value 			uniform (0 0 0);
        type			TractionBC;
        alpha			uniform 1.0;
        traction		uniform (0 0 -1e4);
        value    		uniform (0 0 0);
        //~ type			normalTractionBC;
        //~ alpha			uniform 1.0;
        //~ traction		uniform -1e+4;
        //~ value    		uniform (0 0 0);
    }
    fixed
    {
        type            empty;
    }
}


// ************************************************************************* //
