/*--------------------------------*- C++ -*----------------------------------*\
| =========                 |                                                 |
| \\      /  F ield         | OpenFOAM: The Open Source CFD Toolbox           |
|  \\    /   O peration     | Version:  3.0.x                                 |
|   \\  /    A nd           | Web:      www.OpenFOAM.org                      |
|    \\/     M anipulation  |                                                 |
\*---------------------------------------------------------------------------*/
FoamFile
{
    version     2.0;
    format      ascii;
    class       dictionary;
    object      controlDict;
}
// * * * * * * * * * * * * * * * * * * * * * * * * * * * * * * * * * * * * * //

libs ("TractionBC.so");

application     satBiotFoam;

startFrom       startTime;

startTime       0;

stopAt          endTime;

endTime         3600;

deltaT          1; //Von-Neumann Stability Criteria dt<4.1563*dy^2

writeControl    adjustableRunTime;

writeInterval   60.0;

purgeWrite      0;

writeFormat     ascii;

writePrecision  6;

maxDeltaT		60;

writeCompression uncompressed;

timeFormat      general;

timePrecision   6;

runTimeModifiable true;

adjustTimeStep	false;

// ************************************************************************* //
